hello. nothing useful here.
New Line.
Third Line.
